Version 4
SHEET 1 928 680
WIRE 192 -144 -288 -144
WIRE 192 -96 192 -144
WIRE 192 64 192 -16
WIRE -288 144 -288 -144
WIRE 16 144 -128 144
WIRE 144 144 16 144
WIRE -288 256 -288 224
WIRE -128 256 -128 224
WIRE -128 256 -288 256
WIRE 16 256 16 224
WIRE 16 256 -128 256
WIRE 192 256 192 160
WIRE 192 256 16 256
WIRE 192 272 192 256
FLAG 192 272 0
SYMBOL nmos 144 64 R0
SYMATTR InstName M1
SYMATTR Value IRLML6344
SYMBOL res 0 128 R0
SYMATTR InstName R2
SYMATTR Value 39K
SYMBOL voltage -288 128 R0
WINDOW 123 0 0 Left 0
WINDOW 39 0 0 Left 0
SYMATTR InstName V1
SYMATTR Value 6
SYMBOL sw 720 128 M180
SYMATTR InstName S1
SYMATTR Value SW_1
SYMBOL voltage -128 128 R0
WINDOW 3 -3 165 Left 2
WINDOW 123 0 0 Left 0
WINDOW 39 0 0 Left 0
SYMATTR InstName V2
SYMATTR Value PULSE(0 6 0 0 0 0.5 1 20)
SYMBOL res 176 -112 R0
SYMATTR InstName R3
SYMATTR Value 100
TEXT -322 296 Left 2 !.tran 10s
TEXT 376 -96 Left 2 !.Model SW_1 SW(Ron=1m Roff=100Meg Vt=6)
